Version 4
SHEET 1 880 680
WIRE 128 80 0 80
WIRE 352 80 192 80
WIRE 0 160 0 80
WIRE 192 160 192 128
WIRE 352 160 352 80
WIRE 0 272 0 240
WIRE 160 272 0 272
WIRE 192 272 192 240
WIRE 192 272 160 272
WIRE 352 272 352 240
WIRE 352 272 192 272
WIRE 160 288 160 272
FLAG 160 288 0
SYMBOL voltage 0 144 R0
WINDOW 3 3 95 Left 0
WINDOW 123 0 0 Left 0
WINDOW 39 0 0 Left 0
SYMATTR InstName V1
SYMATTR Value SINE(0 230 50)
SYMBOL voltage 192 144 R0
WINDOW 3 -42 95 Left 0
WINDOW 123 0 0 Left 0
WINDOW 39 0 0 Left 0
SYMATTR InstName V2
SYMATTR Value PULSE(0 30 3.33m 0.1n 0.1n 1m 20m 5)
SYMBOL Misc\\SCR 128 96 R270
WINDOW 3 18 55 Left 1
SYMATTR InstName U1
SYMATTR Value EC103D1
SYMBOL res 336 144 R0
SYMATTR InstName R1
SYMATTR Value 10
TEXT 232 296 Left 2 !.tran 100m
TEXT -24 328 Left 1 !.lib Thyristor_SCR_EC103xx_SxSx_A_SPICE_Model_lib.lib
