Version 4
SHEET 1 964 680
WIRE 288 -48 224 -48
WIRE 464 -48 368 -48
WIRE 224 32 224 -48
WIRE 32 96 -64 96
WIRE 176 96 112 96
WIRE 464 96 464 -48
WIRE -64 144 -64 96
WIRE -64 240 -64 224
WIRE 224 240 224 96
WIRE 224 240 -64 240
WIRE 464 240 464 176
WIRE 464 240 224 240
WIRE 224 272 224 240
FLAG 224 272 0
SYMBOL voltage -64 128 R0
WINDOW 123 0 0 Left 0
WINDOW 39 0 0 Left 0
SYMATTR InstName V1
SYMATTR Value PULSE(0 10 5m 1u 1u 3m 20m 5)
SYMBOL voltage 464 80 R0
WINDOW 123 0 0 Left 0
WINDOW 39 0 0 Left 0
SYMATTR InstName V2
SYMATTR Value SINE(0 100 50 0 0 20m 5)
SYMBOL res 128 80 R90
WINDOW 0 0 56 VBottom 2
WINDOW 3 32 56 VTop 2
SYMATTR InstName R1
SYMATTR Value 100
SYMBOL res 384 -64 R90
WINDOW 0 0 56 VBottom 2
WINDOW 3 32 56 VTop 2
SYMATTR InstName R2
SYMATTR Value 10
SYMBOL Misc\\SCR 208 32 R0
SYMATTR InstName U1
SYMATTR Value TN3050H-12LY
TEXT -232 -128 Left 2 !.inc C:\\Program Files\\LTC\\LTspiceXVII\\lib\\high-temperature_scr_pspice\\st_high-temperature_scr.lib
TEXT -234 296 Left 2 !.tran 100ms
